0037.xyz
 OpenBabel05212515413D

 14 12  0  0  0  0  0  0  0  0999 V2000
    0.8727    0.5278   -0.0214 N   0  0  0  0  0  4  0  0  0  0  0  0
    0.1227    0.3978   -1.2854 C   0  0  0  0  0  0  0  0  0  0  0  0
    1.2207    1.4798    0.1276 H   0  0  0  0  0  0  0  0  0  0  0  0
    1.6677   -0.1172    0.0386 H   0  0  0  0  0  0  0  0  0  0  0  0
    0.2627    0.3178    0.8046 H   0  0  0  0  0  0  0  0  0  0  0  0
    0.8057    0.6738   -2.0934 H   0  0  0  0  0  0  0  0  0  0  0  0
   -0.7063    1.1098   -1.2434 H   0  0  0  0  0  0  0  0  0  0  0  0
   -0.3693   -1.0242   -1.4344 C   0  0  0  0  0  0  0  0  0  0  0  0
    0.4657   -1.7332   -1.4484 H   0  0  0  0  0  0  0  0  0  0  0  0
   -0.9233   -1.1362   -2.3724 H   0  0  0  0  0  0  0  0  0  0  0  0
   -1.0383   -1.3012   -0.6124 H   0  0  0  0  0  0  0  0  0  0  0  0
   -0.5747    0.0587    2.1500 O   0  0  0  0  0  0  0  0  0  0  0  0
   -0.5717   -0.7103    2.7590 H   0  0  0  0  0  0  0  0  0  0  0  0
   -1.2507    0.6127    2.5970 H   0  0  0  0  0  0  0  0  0  0  0  0
  1  4  1  0  0  0  0
  1  3  1  0  0  0  0
  1  5  1  0  0  0  0
  2  7  1  0  0  0  0
  2  1  1  0  0  0  0
  6  2  1  0  0  0  0
  8  2  1  0  0  0  0
  8 11  1  0  0  0  0
  9  8  1  0  0  0  0
 10  8  1  0  0  0  0
 12 14  1  0  0  0  0
 12 13  1  0  0  0  0
M  CHG  1   1   1
M  END
$$$$
