0421.xyz
 OpenBabel05212515283D

 12 10  0  0  0  0  0  0  0  0999 V2000
   -0.7559   -0.0850    0.0380 N   0  0  0  0  0  4  0  0  0  0  0  0
   -0.3609    0.1118   -1.4441 C   0  0  0  0  0  0  0  0  0  0  0  0
   -1.7677   -0.0075    0.1648 H   0  0  0  0  0  0  0  0  0  0  0  0
   -0.3032    0.6197    0.6252 H   0  0  0  0  0  0  0  0  0  0  0  0
   -0.4600   -1.0071    0.3674 H   0  0  0  0  0  0  0  0  0  0  0  0
   -0.7382    1.0928   -1.7241 H   0  0  0  0  0  0  0  0  0  0  0  0
   -0.9058   -0.6479   -2.0000 H   0  0  0  0  0  0  0  0  0  0  0  0
    1.1443   -0.0054   -1.6191 C   0  0  0  0  0  0  0  0  0  0  0  0
    1.6854    0.7573   -1.0570 H   0  0  0  0  0  0  0  0  0  0  0  0
    1.3882    0.1376   -2.6715 H   0  0  0  0  0  0  0  0  0  0  0  0
    1.5172   -0.9902   -1.3334 H   0  0  0  0  0  0  0  0  0  0  0  0
    0.0403   -0.0022    2.3115 F   0  0  0  0  0 15  0  0  0  0  0  0
  1  3  1  0  0  0  0
  1  5  1  0  0  0  0
  1  4  1  0  0  0  0
  2  1  1  0  0  0  0
  6  2  1  0  0  0  0
  7  2  1  0  0  0  0
  8  2  1  0  0  0  0
  8 11  1  0  0  0  0
  8  9  1  0  0  0  0
 10  8  1  0  0  0  0
M  CHG  2   1   1  12  -1
M  END
$$$$
