0040.xyz
 OpenBabel05212515073D

  5  4  0  0  0  0  0  0  0  0999 V2000
   -0.7593    0.5242   -0.7906 O   0  0  0  0  0  0  0  0  0  0  0  0
    0.8337   -0.8508   -0.1586 O   0  0  0  0  0  0  0  0  0  0  0  0
    0.0897   -0.3718   -1.0606 C   0  0  0  0  0  0  0  0  0  0  0  0
    0.1837   -0.7448   -2.1106 H   0  0  0  0  0  0  0  0  0  0  0  0
   -0.1065    0.4539    1.3065 Na  0  0  0  0  0  0  0  0  0  0  0  0
  2  5  1  0  0  0  0
  3  1  2  0  0  0  0
  3  2  1  0  0  0  0
  4  3  1  0  0  0  0
M  END
$$$$
