0044.xyz
 OpenBabel05212515063D

  5  3  0  0  0  0  0  0  0  0999 V2000
   -0.4688   -0.9713   -0.0548 O   0  0  0  0  0  0  0  0  0  0  0  0
    0.4572    0.9717    0.0202 O   0  0  0  0  0  0  0  0  0  0  0  0
   -0.1678    0.1017   -0.6488 C   0  0  0  0  0  0  0  0  0  0  0  0
   -0.4418    0.2737   -1.7118 H   0  0  0  0  0  0  0  0  0  0  0  0
    0.3768   -0.2144    1.4344 Li  0  0  0  0  0  0  0  0  0  0  0  0
  3  1  2  0  0  0  0
  3  2  1  0  0  0  0
  4  3  1  0  0  0  0
M  CHG  2   1  -1   5   1
M  END
$$$$
