0040.xyz
 OpenBabel05212515103D

  7  5  0  0  0  0  0  0  0  0999 V2000
    0.4564    0.2340   -1.1623 O   0  0  0  0  0  0  0  0  0  0  0  0
   -1.0456   -0.6700    0.2737 O   0  0  0  0  0  1  0  0  0  0  0  0
   -0.5796   -0.4250   -0.8733 C   0  0  0  0  0  0  0  0  0  0  0  0
   -1.1626   -0.8490   -1.7493 H   0  0  0  0  0  0  0  0  0  0  0  0
    1.0126    0.7461    1.5271 O   0  0  0  0  0  0  0  0  0  0  0  0
    0.1886    0.2021    1.4651 H   0  0  0  0  0  0  0  0  0  0  0  0
    1.1526    0.7831    0.5481 H   0  0  0  0  0  0  0  0  0  0  0  0
  1  3  2  0  0  0  0
  3  2  1  0  0  0  0
  4  3  1  0  0  0  0
  6  5  1  0  0  0  0
  7  5  1  0  0  0  0
M  END
$$$$
