ggg.pdb
 OpenBabel10012509023D

 11  9  0  0  0  0  0  0  0  0999 V2000
    0.0000   -0.0000   -2.3280 C   0  3  0  0  0  0  0  0  0  0  0  0
    0.5320    0.3780   -3.4920 N   0  0  0  0  0  4  0  0  0  0  0  0
    0.4290   -1.1120   -1.7290 N   0  0  0  0  0  0  0  0  0  0  0  0
   -0.9610    0.7330   -1.7640 N   0  0  0  0  0  0  0  0  0  0  0  0
    0.0620   -1.4470   -0.8440 H   0  0  0  0  0  0  0  0  0  0  0  0
    1.1570   -1.7080   -2.1110 H   0  0  0  0  0  0  0  0  0  0  0  0
    0.2450    1.2140   -3.9920 H   0  0  0  0  0  0  0  0  0  0  0  0
    1.2650   -0.1400   -3.9660 H   0  0  0  0  0  0  0  0  0  0  0  0
   -1.3270    1.5870   -2.1750 H   0  0  0  0  0  0  0  0  0  0  0  0
   -1.4020    0.4940   -0.8820 H   0  0  0  0  0  0  0  0  0  0  0  0
    0.0000   -0.0000    1.7720 Br  0  5  0  0  0  0  0  0  0  0  0  0
  1  4  1  0  0  0  0
  1  3  1  0  0  0  0
  2  1  2  0  0  0  0
  3  5  1  0  0  0  0
  4 10  1  0  0  0  0
  6  3  1  0  0  0  0
  7  2  1  0  0  0  0
  8  2  1  0  0  0  0
  9  4  1  0  0  0  0
M  CHG  2   1   1  11  -1
M  END
$$$$
