ggg.pdb
 OpenBabel10012509043D

 17 15  0  0  0  0  0  0  0  0999 V2000
   -0.3480    0.0680   -1.9690 C   0  0  0  0  0  0  0  0  0  0  0  0
   -0.6180    0.8010   -0.8870 N   0  0  0  0  0  0  0  0  0  0  0  0
   -0.5880    0.5610   -3.1850 N   0  0  0  0  0  4  0  0  0  0  0  0
    0.1630   -1.1570   -1.8340 N   0  0  0  0  0  0  0  0  0  0  0  0
   -0.4020    0.0490   -4.0420 H   0  0  0  0  0  0  0  0  0  0  0  0
   -0.9750    1.4850   -3.3480 H   0  0  0  0  0  0  0  0  0  0  0  0
   -0.4560    0.4780    0.0620 H   0  0  0  0  0  0  0  0  0  0  0  0
   -1.0070    1.7380   -0.9290 H   0  0  0  0  0  0  0  0  0  0  0  0
    0.3660   -1.5820   -0.9350 H   0  0  0  0  0  0  0  0  0  0  0  0
    0.3880   -1.7580   -2.6200 H   0  0  0  0  0  0  0  0  0  0  0  0
   -0.9430    0.1990    2.5800 C   0  0  0  0  0  0  0  0  0  0  0  0
    0.4580   -0.0860    1.9600 C   0  0  0  0  0  0  0  0  0  0  0  0
    1.3330    0.8430    2.0770 O   0  0  0  0  0  0  0  0  0  0  0  0
    0.5800   -1.2320    1.3950 O   0  0  0  0  0  0  0  0  0  0  0  0
   -0.9690    1.1810    3.0550 H   0  0  0  0  0  0  0  0  0  0  0  0
   -1.7070    0.1470    1.7970 H   0  0  0  0  0  0  0  0  0  0  0  0
   -1.1840   -0.5750    3.3150 H   0  0  0  0  0  0  0  0  0  0  0  0
  1  4  1  0  0  0  0
  1  2  1  0  0  0  0
  2  7  1  0  0  0  0
  3  1  2  0  0  0  0
  4  9  1  0  0  0  0
  5  3  1  0  0  0  0
  6  3  1  0  0  0  0
  8  2  1  0  0  0  0
 10  4  1  0  0  0  0
 11 15  1  0  0  0  0
 11 17  1  0  0  0  0
 12 13  1  0  0  0  0
 12 11  1  0  0  0  0
 14 12  2  0  0  0  0
 16 11  1  0  0  0  0
M  CHG  2   1   1  13  -1
M  END
$$$$
