ggg.pdb
 OpenBabel10012509113D

 17 16  0  0  0  0  0  0  0  0999 V2000
    0.8850   -0.2700   -2.3950 C   0  0  0  0  0  0  0  0  0  0  0  0
    0.0720   -1.1830   -1.7850 C   0  0  0  0  0  0  0  0  0  0  0  0
   -0.8050   -0.4590   -1.0050 N   0  0  0  0  0  0  0  0  0  0  0  0
   -0.5600    0.8500   -1.1140 C   0  0  0  0  0  0  0  0  0  0  0  0
    0.4680    0.9710   -1.9600 N   0  3  0  0  0  0  0  0  0  0  0  0
    1.7090   -0.3320   -3.0840 H   0  0  0  0  0  0  0  0  0  0  0  0
   -0.0040   -2.2560   -1.7980 H   0  0  0  0  0  0  0  0  0  0  0  0
   -1.5400   -0.8570   -0.4230 H   0  0  0  0  0  0  0  0  0  0  0  0
   -1.0900    1.6540   -0.6170 H   0  0  0  0  0  0  0  0  0  0  0  0
    0.8800    1.8600   -2.2380 H   0  0  0  0  0  0  0  0  0  0  0  0
   -0.9230   -0.8160    2.6940 C   0  0  0  0  0  0  0  0  0  0  0  0
    0.0700    0.0690    1.8610 C   0  0  0  0  0  0  0  0  0  0  0  0
   -0.1220    1.3450    1.9010 O   0  0  0  0  0  0  0  0  0  0  0  0
    0.9800   -0.5880    1.2180 O   0  0  0  0  0  0  0  0  0  0  0  0
   -1.6550   -0.1950    3.2240 H   0  0  0  0  0  0  0  0  0  0  0  0
   -1.4420   -1.5120    2.0190 H   0  0  0  0  0  0  0  0  0  0  0  0
   -0.3530   -1.4210    3.4150 H   0  0  0  0  0  0  0  0  0  0  0  0
  1  5  1  0  0  0  0
  1  2  2  0  0  0  0
  2  3  1  0  0  0  0
  3  8  1  0  0  0  0
  4  3  1  0  0  0  0
  4  9  1  0  0  0  0
  5  4  2  0  0  0  0
  6  1  1  0  0  0  0
  7  2  1  0  0  0  0
 10  5  1  0  0  0  0
 11 15  1  0  0  0  0
 11 17  1  0  0  0  0
 12 13  1  0  0  0  0
 12 11  1  0  0  0  0
 14 12  2  0  0  0  0
 16 11  1  0  0  0  0
M  CHG  2   5   1  13  -1
M  END
$$$$
