ggg.pdb
 OpenBabel10012509163D

 11 10  0  0  0  0  0  0  0  0999 V2000
   -0.1200   -0.0650   -3.5750 C   0  0  0  0  0  0  0  0  0  0  0  0
    0.3610   -1.0680   -2.7820 C   0  0  0  0  0  0  0  0  0  0  0  0
    0.3340   -0.5860   -1.4900 N   0  0  0  0  0  0  0  0  0  0  0  0
   -0.1410    0.6630   -1.4660 C   0  0  0  0  0  0  0  0  0  0  0  0
   -0.4190    0.9840   -2.7330 N   0  3  0  0  0  0  0  0  0  0  0  0
   -0.2920    0.0470   -4.6320 H   0  0  0  0  0  0  0  0  0  0  0  0
    0.7220   -2.0660   -2.9590 H   0  0  0  0  0  0  0  0  0  0  0  0
    0.6330   -1.1010   -0.6640 H   0  0  0  0  0  0  0  0  0  0  0  0
   -0.2750    1.2910   -0.5920 H   0  0  0  0  0  0  0  0  0  0  0  0
   -0.7990    1.8830   -3.0260 H   0  0  0  0  0  0  0  0  0  0  0  0
    0.0000   -0.0000    2.0900 Br  0  5  0  0  0  0  0  0  0  0  0  0
  1  2  2  0  0  0  0
  1  5  1  0  0  0  0
  2  3  1  0  0  0  0
  3  4  1  0  0  0  0
  3  8  1  0  0  0  0
  4  9  1  0  0  0  0
  5  4  2  0  0  0  0
  6  1  1  0  0  0  0
  7  2  1  0  0  0  0
 10  5  1  0  0  0  0
M  CHG  2   5   1  11  -1
M  END
$$$$
