ggg.pdb
 OpenBabel10012509143D

 11 10  0  0  0  0  0  0  0  0999 V2000
    0.1900   -0.0300   -2.6300 C   0  0  0  0  0  0  0  0  0  0  0  0
    0.0650   -1.1300   -1.8300 C   0  0  0  0  0  0  0  0  0  0  0  0
   -0.1430   -0.6570   -0.5520 N   0  0  0  0  0  0  0  0  0  0  0  0
   -0.1490    0.6790   -0.5420 C   0  0  0  0  0  0  0  0  0  0  0  0
    0.0530    1.0660   -1.8050 N   0  3  0  0  0  0  0  0  0  0  0  0
    0.3590    0.1260   -3.6820 H   0  0  0  0  0  0  0  0  0  0  0  0
    0.0950   -2.1930   -1.9950 H   0  0  0  0  0  0  0  0  0  0  0  0
   -0.2740   -1.2370    0.2750 H   0  0  0  0  0  0  0  0  0  0  0  0
   -0.2900    1.3220    0.3200 H   0  0  0  0  0  0  0  0  0  0  0  0
    0.0990    2.0380   -2.1060 H   0  0  0  0  0  0  0  0  0  0  0  0
    0.0000   -0.0000    2.8680 Cl  0  5  0  0  0  0  0  0  0  0  0  0
  1  2  2  0  0  0  0
  1  5  1  0  0  0  0
  2  3  1  0  0  0  0
  3  4  1  0  0  0  0
  3  8  1  0  0  0  0
  4  9  1  0  0  0  0
  5  4  2  0  0  0  0
  6  1  1  0  0  0  0
  7  2  1  0  0  0  0
 10  5  1  0  0  0  0
M  CHG  2   5   1  11  -1
M  END
$$$$
