ggg.pdb
 OpenBabel10012509173D

 13 12  0  0  0  0  0  0  0  0999 V2000
   -0.3940   -0.4830   -1.9620 C   0  0  0  0  0  0  0  0  0  0  0  0
    0.9020   -0.1350   -1.7150 C   0  0  0  0  0  0  0  0  0  0  0  0
    0.9420    0.3450   -0.4070 N   0  0  0  0  0  0  0  0  0  0  0  0
   -0.2850    0.2970    0.1400 C   0  0  0  0  0  0  0  0  0  0  0  0
   -1.1080   -0.2050   -0.7970 N   0  3  0  0  0  0  0  0  0  0  0  0
   -0.8580   -0.8910   -2.8380 H   0  0  0  0  0  0  0  0  0  0  0  0
    1.7740   -0.1850   -2.3370 H   0  0  0  0  0  0  0  0  0  0  0  0
    1.7690    0.6800    0.0640 H   0  0  0  0  0  0  0  0  0  0  0  0
   -0.5550    0.6010    1.1330 H   0  0  0  0  0  0  0  0  0  0  0  0
   -2.0970   -0.3580   -0.6720 H   0  0  0  0  0  0  0  0  0  0  0  0
   -0.0280    0.1430    3.4940 O   0  0  0  0  0  0  0  0  0  0  0  0
   -0.1880    0.5150    4.3620 H   0  0  0  0  0  0  0  0  0  0  0  0
    0.2440   -0.7590    3.6670 H   0  0  0  0  0  0  0  0  0  0  0  0
  1  2  2  0  0  0  0
  1  5  1  0  0  0  0
  2  3  1  0  0  0  0
  3  8  1  0  0  0  0
  3  4  1  0  0  0  0
  4  9  1  0  0  0  0
  5 10  1  0  0  0  0
  5  4  2  0  0  0  0
  6  1  1  0  0  0  0
  7  2  1  0  0  0  0
 11 13  1  0  0  0  0
 11 12  1  0  0  0  0
M  CHG  1   5   1
M  END
$$$$
