0310.xyz
 OpenBabel05212515223D

  9  7  0  0  0  0  0  0  0  0999 V2000
   -0.6478    0.0679   -0.7140 N   0  0  0  0  0  4  0  0  0  0  0  0
    0.7093   -0.0744   -1.4012 C   0  0  0  0  0  0  0  0  0  0  0  0
   -0.7294   -0.5792    0.0740 H   0  0  0  0  0  0  0  0  0  0  0  0
   -1.4112   -0.1315   -1.3649 H   0  0  0  0  0  0  0  0  0  0  0  0
   -0.7798    1.0172   -0.3561 H   0  0  0  0  0  0  0  0  0  0  0  0
    0.8055   -1.0926   -1.7637 H   0  0  0  0  0  0  0  0  0  0  0  0
    1.4860    0.1453   -0.6766 H   0  0  0  0  0  0  0  0  0  0  0  0
    0.7512    0.6279   -2.2272 H   0  0  0  0  0  0  0  0  0  0  0  0
    0.0230   -0.0024    1.7463 F   0  0  0  0  0 15  0  0  0  0  0  0
  1  5  1  0  0  0  0
  1  3  1  0  0  0  0
  2  1  1  0  0  0  0
  2  7  1  0  0  0  0
  4  1  1  0  0  0  0
  6  2  1  0  0  0  0
  8  2  1  0  0  0  0
M  CHG  2   1   1   9  -1
M  END
$$$$
