Coordinates from XML
 OpenBabel05212510523D

  4  2  0  0  0  0  0  0  0  0999 V2000
   -0.8863    0.9661    0.0032 O   0  0  0  0  0  0  0  0  0  0  0  0
   -1.8463    0.8831    0.0032 H   0  0  0  0  0  0  0  0  0  0  0  0
   -0.7153    1.9141    0.0032 H   0  0  0  0  0  0  0  0  0  0  0  0
    0.7289   -0.7948   -0.0025 Na  0  0  0  0  0 15  0  0  0  0  0  0
  1  2  1  0  0  0  0
  1  3  1  0  0  0  0
M  CHG  1   4   1
MM  END
$$$$
