Coordinates from XML
 OpenBabel05212510533D

  4  2  0  0  0  0  0  0  0  0999 V2000
   -1.8673   -0.2112   -0.0636 O   0  0  0  0  0  0  0  0  0  0  0  0
   -2.3613   -1.0352   -0.0636 H   0  0  0  0  0  0  0  0  0  0  0  0
   -2.5513    0.4638   -0.0636 H   0  0  0  0  0  0  0  0  0  0  0  0
    0.8936    0.1015    0.0294 K   0  0  0  0  0 15  0  0  0  0  0  0
  1  2  1  0  0  0  0
  1  3  1  0  0  0  0
M  CHG  1   4   1
M  END
$$$$
